LIST   16 'C:\CURSOIGME\EXAMPLE SWAT-MODFLOW\MODFLOW\Synthetic\Synthetic.OT'
BTN   1 'C:\CURSOIGME\EXAMPLE SWAT-MODFLOW\MODFLOW\Synthetic\Synthetic.BT3'
ADV   2 'C:\CURSOIGME\EXAMPLE SWAT-MODFLOW\MODFLOW\Synthetic\Synthetic.AD3'
DSP   3 'C:\CURSOIGME\EXAMPLE SWAT-MODFLOW\MODFLOW\Synthetic\Synthetic.DP3'
SSM   4 'C:\CURSOIGME\EXAMPLE SWAT-MODFLOW\MODFLOW\Synthetic\Synthetic.SS3'
GCG   9 'C:\CURSOIGME\EXAMPLE SWAT-MODFLOW\MODFLOW\Synthetic\Synthetic.GCG'
FTL   10 'C:\CURSOIGME\EXAMPLE SWAT-MODFLOW\MODFLOW\Synthetic\Synthetic.FLO'
