OUTPUT_FILE_NAME C:\CURSOIGME\EXAMPLE SWAT-MODFLOW\MODFLOW\Synthetic\Synthetic.FLO
OUTPUT_FILE_UNIT        175
OUTPUT_FILE_FORMAT Unformatted
OUTPUT_FILE_HEADER Extended
