<?VMod 4.6.0.159?>
<Project Start_Date="38718" Project_Title="Synthetic" Model_Run="true" Name="Synthetic">
  <Georeference World_Origin_X="5513198.56" World_Origin_Y="5897332.26" Model_Origin_X="0" Model_Origin_Y="0" Angle="0" Length="1050.43101" Height="551.295755"/>
  <Maps>
    <Map Source_Name="D:\SWAT-MODFLOW IGME\EXAMPLE\MODFLOW\Input\Shapes\Syntheticarea.shp" Home_Name="$Project.Path$\$Project.Name$.Syntheticarea.SHP" ShowBy="0" Description="Site map" Type="shp" Primary="true" Color="9" All_Layers="0" CoordType="14471" Draw="true" Visible="true" Name="C:\CURSOIGME\EXAMPLE SWAT-MODFLOW\MODFLOW\Synthetic\Synthetic.Syntheticarea.SHP"/>
  </Maps>
  <Units>
    <Unit Category="Length" Id="0" Name="m"/>
    <Unit Category="Time" Id="3" Name="day"/>
    <Unit Category="Pumping Rate" Id="0" Name="m^3/d"/>
    <Unit Category="Conductivity" Id="3" Name="m/d"/>
    <Unit Category="Recharge" Id="1" Name="mm/yr"/>
    <Unit Category="Mass" Id="0" Name="Kg"/>
    <Unit Category="Concentration" Id="1" Name="mg/L"/>
  </Units>
  <Grid X_Nodes="0,50.02052,100.041,150.0616,200.0821,250.1026,300.1231,350.1437,400.1642,450.1847,500.2052,550.2258,600.2463,650.2668,700.2873,750.3079,800.3284,850.3489,900.3694,950.39,1000.41,1050.431" Y_Nodes="0,50.1178,100.2356,150.3534,200.4712,250.589,300.7068,350.8246,400.9424,451.0602,501.178,551.2958" Current_Layer="1" Rows="11" Layers="1" Columns="21"/>
  <Current Flow_Variant="FVar008" Flow_Engine="MODFLOW-NWT" Transport_Variant="Var001" Transport_Engine="MT3DMS" Species="Conc001" Last_Module="15" Module="0"/>
  <Flow>
    <Variant Name="FVar008">
      <Engine Abort_Entry="MFAbort" Abort_Param_1="0" Abort_Type="2" CPU64bit_Supported="true" DLL_Name="mfnwt.dll" DLL_Supported="false" Description="USGS MODFLOW-NWT from SWS" EXE_Double_Precision_Supported="false" EXE_Name="mfnwt.exe" EXE_Supported="true" EXEx64_Name="mfnwt(x64).exe" Id="9" Name="MODFLOW-NWT" OMP_Supported="false" Run="true" Run_Entry="MFNWT" Run_Param_1="96" Short_Name="MODFLOW-NWT" Supported="true" Thread_Type="4" Transport="3,4,5,6,7,8,9,12,13" Type="0">
        <Params ICONVSTOP="1" IHDWET="0" IWDFLG="false" IWETIT="1" LAYAVG="0" LAYVKA="0" LAYWET="false" LRTYPE="3" No_Abort="false" SIDEWET="0" TRPY="1" WETFCT="0.75" WETTHTRESH="1"/>
        <Layer_Parameters>
          <Layer IHDWET="0" LAYVKA="0" LAYWET="false" SIDEWET="0" TRPY="1" WETTHTRESH="1" LAYAVG="0" LRTYPE="1" Layer="1"/>
        </Layer_Parameters>
        <Packages Layer_Types="0 1 2 3 10 11 12 13 20 21 22 23 30 31 32 33" User="false">
          <Item Composite="true" Description="7967" Expanded="false" Id="Solver" Key="0001" Main="true" Name="Solver" Run_Option="true" Short_Name="7966" Supported="true" Type="List" Value="44490" Value_Type="Int" Visible="true">
            <Item Composite="true" Description="Newton formulation" Id="NWT" Key="00151" Name="NWT" Short_Name="NWT" Supported="true" Type="Set" Value="44490" Visible="true">
              <Item Description="Head Change Criterion for Outer Iterations (HEADTOL)" Key="0001.00151.0001" Name="HEADTOL" Region="[0..1e30]" Run_Option="true" Short_Name="Head Change Criterion for Outer Iterations (HEADTOL)" Type="Float" Value="1e-5" Visible="true"/>
              <Item Description="Flux Change Criterion for Inner Iterations (FLUXTOL)" Key="0001.00151.0002" Name="FLUXTOL" Region="[1..2147483647]" Run_Option="true" Short_Name="Flux Change Criterion for Inner Iterations (FLUXTOL)" Type="Float" Value="1" Visible="true"/>
              <Item Description="Automate Solver Options (OPTIONS)" Key="0001.00151.0003" Name="OPTIONS" Run_Option="true" Short_Name="Automate Solver Options (OPTIONS)" Type="List" Value="0" Value_Type="Int" Visible="true">
                <List_Item Value="0" Description="SPECIFIED"/>
                <List_Item Value="1" Description="SIMPLE"/>
                <List_Item Value="2" Description="MODERATE"/>
                <List_Item Value="3" Description="COMPLEX"/>
              </Item>
              <Item Description="Maximum Outer Iterations (MAXITEROUT)" Key="0001.00151.0004" Name="MAXITEROUT" Region="(10..2000]" Run_Option="true" Short_Name="Maximum Outer Iterations (MAXITEROUT)" Type="Int" Value="100" Visible="true"/>
              <Item Description="Proporation of Cell Thickness for Smoothing (THICKFACT)" Key="0001.00151.0005" Name="THICKFACT" Region="(0..1e30]" Run_Option="true" Short_Name="Proporation of Cell Thickness for Smoothing (THICKFACT)" Type="Float" Value="0.000001" Visible="true"/>
              <Item Description="Linear Solution Method (LINMETH)" Key="0001.00151.0007" Name="LINMETH" Run_Option="true" Short_Name="Linear Solution Method (LINMETH)" Type="List" Value="2" Value_Type="Int" Visible="true">
                <List_Item Value="1" Description="GMRES"/>
                <List_Item Value="2" Description="xMD"/>
              </Item>
              <Item Description="Correct Heads Surrounded by Dewatered Cells (IBOTAV)" Key="0001.00151.0006" Name="IBOTAV" Region="[0..1]" Run_Option="true" Short_Name="Correct Heads Surrounded by Dewatered Cells (IBOTAV)" Type="List" Value="1" Visible="true">
                <List_Item Value="0" Description="false"/>
                <List_Item Value="1" Description="true"/>
              </Item>
              <Item Description="Learning Rate Reduction Factor (DBDTHETA)" Key="0001.00151.0011" Name="DBDTHETA" Region="[0..1]" Run_Option="true" Short_Name="Learning Rate Reduction Factor (DBDTHETA)" Type="Float" Value="0.9" Visible="true"/>
              <Item Description="Learning Rate Increment (DBDKAPPA)" Key="0001.00151.0012" Name="DBDKAPPA" Region="[0..1]" Run_Option="true" Short_Name="Learning Rate Increment (DBDKAPPA)" Type="Float" Value="0.00001" Visible="true"/>
              <Item Description="Memory Term Factor (DBDGAMMA)" Key="0001.00151.0013" Name="DBDGAMMA" Region="[0..1]" Run_Option="true" Short_Name="Memory Term Factor (DBDGAMMA)" Type="Float" Value="0.0" Visible="true"/>
              <Item Description="Momentum Term (MOMFACT)" Key="0001.00151.0014" Name="MOMFACT" Region="[0..1]" Run_Option="true" Short_Name="Momentum Term (MOMFACT)" Type="Float" Value="0.1" Visible="true"/>
              <Item Description="Use Residual Control (BACKFLAG)" Key="0001.00151.0015" Name="BACKFLAG" Region="[0..1]" Run_Option="true" Short_Name="Use Residual Control (BACKFLAG)" Type="Int" Value="1" Visible="true"/>
              <Item Description="Maximum Backtracking Iterations (MAXBACITER)" Key="0001.00151.0015" Name="MAXBACKITER" Region="[1..100]" Run_Option="true" Short_Name="Maximum Backtracking Iterations (MAXBACITER)" Type="Int" Value="30" Visible="true"/>
              <Item Description="Residual Change Tolerance (BACKTOL)" Key="0001.00151.0015" Name="BACKTOL" Region="[1..2]" Run_Option="true" Short_Name="Residual Change Tolerance (BACKTOL)" Type="Float" Value="1.05" Visible="true"/>
              <Item Description="Time Step Reduction Factor (BACKREDUCE)" Key="0001.00151.0015" Name="BACKREDUCE" Region="[0.05..0.99]" Run_Option="true" Short_Name="Time Step Reduction Factor (BACKREDUCE)" Type="Float" Value="0.9" Visible="true"/>
              <Item Description="Maximum Iterations for Linear Solution (MAXITINNER)" Key="0001.00151.0015" Name="MAXITINNER" Region="[25..1000]" Run_Option="true" Short_Name="Maximum Iterations for Linear Solution (MAXITINNER)" Type="Int" Value="50" Visible="true"/>
              <Item Description="Factorization for GMRES (ILUMETHOD)" Key="0001.00151.0015" Name="ILUMETHOD" Region="[1..2]" Run_Option="true" Short_Name="Factorization for GMRES (ILUMETHOD)" Type="List" Value="2" Visible="true">
                <List_Item Value="1" Description="1 - ILU with drop tolerance"/>
                <List_Item Value="2" Description="2 - ILU order k incomplete"/>
              </Item>
              <Item Description="Fill Limit (LEVFILL)" Key="0001.00151.0015" Name="LEVFILL" Region="[0..10]" Run_Option="true" Short_Name="Fill Limit (LEVFILL)" Type="Int" Value="1" Visible="true"/>
              <Item Description="GMRES Convergence Tolerance(STOPTOL)" Key="0001.00151.0015" Name="STOPTOL" Region="[1e-12..1e-8]" Run_Option="true" Short_Name="GMRES Convergence Tolerance(STOPTOL)" Type="Float" Value="1e-10" Visible="true"/>
              <Item Description="Iterations Between Restarts (MSDR)" Key="0001.00151.0015" Name="MSDR" Region="[5..10]" Run_Option="true" Short_Name="Iterations Between Restarts (MSDR)" Type="Int" Value="10" Visible="true"/>
              <Item Description="Acceleration Method (IACL)" Key="0001.00151.0007" Name="IACL" Run_Option="true" Short_Name="Acceleration Method (IACL)" Type="List" Value="2" Value_Type="Int" Visible="true">
                <List_Item Value="0" Description="Conjugate gradient"/>
                <List_Item Value="1" Description="ORTHOMIN"/>
                <List_Item Value="2" Description="Bi-CGSTAB"/>
              </Item>
              <Item Description="Ordering Scheme (NORDER)" Key="0001.00151.0007" Name="NORDER" Region="[0..3]" Run_Option="true" Short_Name="Ordering Scheme (NORDER)" Type="Int" Value="1" Value_Type="Int" Visible="true">
                <List_Item Value="0" Description="Original ordering"/>
                <List_Item Value="1" Description="RCM ordering"/>
                <List_Item Value="2" Description="Minimum Degree ordering"/>
              </Item>
              <Item Description="Level of Fill (LEVEL)" Key="0001.00151.0007" Name="LEVEL" Region="[0..10]" Run_Option="true" Short_Name="Level of Fill (LEVEL)" Type="Int" Value="3" Value_Type="Int" Visible="true"/>
              <Item Description="Number of Orthogonalizations (NORTH)" Key="0001.00151.0015" Name="NORTH" Region="[0..10]" Run_Option="true" Short_Name="Number of Orthogonalizations (NORTH)" Type="Int" Value="7" Visible="true"/>
              <Item Description="Create Reduced System (IREDSYS)" Key="0001.00151.0015" Name="IREDSYS" Region="[0..1]" Run_Option="true" Short_Name="Create Reduced System (IREDSYS)" Type="Int" Value="0" Visible="true">
                <List_Item Value="0" Description="false"/>
                <List_Item Value="1" Description="true"/>
              </Item>
              <Item Description="xMD Convergence Tolerance (RRCTOL)" Key="0001.00151.0015" Name="RRCTOLS" Region="[0..0.0001]" Run_Option="true" Short_Name="xMD Convergence Tolerance (RRCTOL)" Type="Float" Value="0" Visible="true"/>
              <Item Description="Perform Drop Tolerance (IDROPTOL)" Key="0001.00151.0015" Name="IDROPTOL" Region="[0..1]" Run_Option="true" Short_Name="Perform Drop Tolerance (IDROPTOL)" Type="Int" Value="1" Visible="true"/>
              <Item Description="Drop Tolerance Value (EPSRN)" Key="0001.00151.0015" Name="EPSRN" Region="[0..1e30]" Run_Option="true" Short_Name="Drop Tolerance Value (EPSRN)" Type="Float" Value="1e-4" Visible="true"/>
              <Item Description="Head Closure for Inner Iterations (HCLOSEXMD)" Key="0001.00151.0015" Name="HCLOSEXMD" Region="[0..1e30]" Run_Option="true" Short_Name="Head Closure for Inner Iterations (HCLOSEXMD)" Type="Float" Value="1e-4" Visible="true"/>
              <Item Description="Maximum Linear Iterations (MXITERXMD)" Key="0001.00151.0015" Name="MXITERXMD" Region="[25..1000]" Run_Option="true" Short_Name="Maximum Linear Iterations (MXITERXMD)" Type="Int" Value="200" Visible="true"/>
              <Item Description="Output unit" Key="0001.00151.0015" Name="IPRNWT" Region="[0..2]" Run_Option="true" Short_Name="Output unit" Type="Int" Value="1" Visible="false"/>
              <Item Key="00151.0001" Name="CUNIT" ReadOnly="true" Short_Name="7959" Type="Int" Value="56" Visible="true"/>
              <Item Key="00151.0002" Name="LUNIT" ReadOnly="true" Short_Name="7960" Type="Int" Value="66" Visible="true"/>
              <Item Key="00151.0003" Name="EXT" ReadOnly="true" Short_Name="NWT" Type="Text" Value=".NWT" Visible="true"/>
              <Item Key="00151.Translate" Name="Translate" ReadOnly="false" Short_Name="7962" Type="bool" Value="true" Visible="true"/>
              <Item Key="00151.Run" Name="Run" ReadOnly="false" Short_Name="7963" Type="bool" Value="true" Visible="true"/>
            </Item>
            <List_Item Value="44490" Description="Newton formulation of MODFLOW-2005"/>
          </Item>
          <Item Composite="true" Description="7974" Id="BAS6" Key="0002" Main="true" Name="BAS" Short_Name="7973" Supported="true" Type="Set" Visible="true">
            <Item Key="0002.0001" Name="CUNIT" ReadOnly="true" Short_Name="7968" Type="Int" Value="0" Visible="true"/>
            <Item Key="0002.0002" Name="LUNIT" ReadOnly="true" Short_Name="7969" Type="Int" Value="10" Visible="true"/>
            <Item Key="0002.0003" Name="EXT" ReadOnly="true" Short_Name="7970" Type="Text" Value=".BAS" Visible="true"/>
            <Item Key="0002.Translate" Name="Translate" ReadOnly="false" Short_Name="7971" Type="bool" Value="true" Visible="true"/>
            <Item Key="0002.Run" Name="Run" ReadOnly="true" Short_Name="7972" Type="bool" Value="true" Visible="true"/>
          </Item>
          <Item Composite="true" Description="8008" Id="LPP" Key="0003" Main="true" Name="LPP" Short_Name="8007" Supported="true" Type="List" Value="0" Visible="true">
            <Item Composite="true" Description="Upstream Weighting Package" Id="UPW" Key="0003.0001" Name="UPW" Short_Name="Upstream Weighting Package" Supported="true" Type="Set" Value="0" Visible="true">
              <Item Key="0025.0001" Name="CUNIT" ReadOnly="true" Short_Name="CUNIT" Type="Int" Value="55" Visible="true"/>
              <Item Key="0025.0002" Name="LUNIT" ReadOnly="true" Short_Name="LUNIT" Type="Int" Value="65" Visible="true"/>
              <Item Key="0025.0003" Name="EXT" ReadOnly="true" Short_Name="Ext" Type="Text" Value=".UPW" Visible="true"/>
              <Item Key="0025.Translate" Name="Translate" ReadOnly="false" Short_Name="Translate" Type="bool" Value="true" Visible="true"/>
              <Item Key="0025.Run" Name="Run" ReadOnly="true" Short_Name="Run" Type="bool" Value="true" Visible="true"/>
            </Item>
            <Item Composite="true" Description="7999" Id="LPF" Key="0003.0002" Name="LPF" Short_Name="7998" Supported="true" Type="Set" Value="1" Visible="true">
              <Item Key="0025.0001" Name="CUNIT" ReadOnly="true" Short_Name="7993" Type="Int" Value="23" Visible="true"/>
              <Item Key="0025.0002" Name="LUNIT" ReadOnly="true" Short_Name="7994" Type="Int" Value="33" Visible="true"/>
              <Item Key="0025.0003" Name="EXT" ReadOnly="true" Short_Name="7995" Type="Text" Value=".LPF" Visible="true"/>
              <Item Key="0025.Translate" Name="Translate" ReadOnly="false" Short_Name="7996" Type="bool" Value="true" Visible="true"/>
              <Item Key="0025.Run" Name="Run" ReadOnly="true" Short_Name="7997" Type="bool" Value="true" Visible="true"/>
            </Item>
            <Item Composite="true" Description="7992" Id="BCF6" Key="0003.0003" Name="BCF" Short_Name="7991" Supported="true" Type="Set" Value="2" Visible="true">
              <Item Key="0003.0001" Name="CUNIT" ReadOnly="true" Short_Name="7978" Type="Int" Value="1" Visible="true"/>
              <Item Key="0003.0002" Name="LUNIT" ReadOnly="true" Short_Name="7979" Type="Int" Value="11" Visible="true"/>
              <Item Key="0003.0003" Name="EXT" ReadOnly="true" Short_Name="7980" Type="Text" Value=".BCF" Visible="true"/>
              <Item Key="0003.Translate" Name="Translate" ReadOnly="false" Short_Name="7981" Type="bool" Value="true" Visible="true"/>
              <Item Key="0003.Run" Name="Run" ReadOnly="true" Short_Name="7982" Type="bool" Value="true" Visible="true"/>
              <Item Description="7984" Key="0003.0004" Name="HDRY" ReadOnly="true" Short_Name="7983" Type="Float" Value="-1e30" Visible="true"/>
              <Item Description="7990" Key="0003.0005" Name="LAYAVG" ReadOnly="false" Short_Name="7989" Type="List" Value="0" Visible="false">
                <List_Item Value="0" Description="7985"/>
                <List_Item Value="1" Description="7986"/>
                <List_Item Value="2" Description="7987"/>
                <List_Item Value="3" Description="7988"/>
              </Item>
            </Item>
            <Item Composite="true" Description="8006" Id="HUF2" Key="0039" Name="HUF" Short_Name="8005" Supported="false" Type="Set" Value="3" Visible="true">
              <Item Key="0039.0001" Name="CUNIT" ReadOnly="true" Short_Name="8000" Type="Int" Value="37" Visible="true"/>
              <Item Key="0039.0002" Name="LUNIT" ReadOnly="true" Short_Name="8001" Type="Int" Value="47" Visible="true"/>
              <Item Key="0039.0003" Name="EXT" ReadOnly="true" Short_Name="8002" Type="Text" Value=".HUF" Visible="true"/>
              <Item Key="0039.Translate" Name="Translate" ReadOnly="false" Short_Name="8003" Type="bool" Value="false" Visible="false"/>
              <Item Key="0039.Run" Name="Run" ReadOnly="true" Short_Name="8004" Type="bool" Value="true" Visible="true"/>
            </Item>
            <List_Item Value="0" Description="Upstream Weighting Package"/>
            <List_Item Value="1" Description="7976"/>
            <List_Item Value="2" Description="7975"/>
            <List_Item Value="3" Description="7977"/>
          </Item>
          <Item Composite="true" Description="8015" Id="WEL" Key="0004" Main="true" Name="WEL" Short_Name="8014" Supported="true" Type="Set" Visible="false">
            <Item Key="0004.0001" Name="CUNIT" ReadOnly="true" Short_Name="8009" Type="Int" Value="2" Visible="true"/>
            <Item Key="0004.0002" Name="LUNIT" ReadOnly="true" Short_Name="8010" Type="Int" Value="12" Visible="true"/>
            <Item Key="0004.0003" Name="EXT" ReadOnly="true" Short_Name="8011" Type="Text" Value=".WEL" Visible="true"/>
            <Item Key="0004.Translate" Name="Translate" ReadOnly="false" Short_Name="8012" Type="bool" Value="false" Visible="true"/>
            <Item Key="0004.Run" Name="Run" ReadOnly="false" Short_Name="8013" Type="bool" Value="false" Visible="true"/>
          </Item>
          <Item Composite="true" Description="8033" Id="DRP" Key="0005" Main="true" Name="DRP" Short_Name="8032" Supported="true" Type="List" Value="0" Visible="false">
            <Item Composite="true" Description="8024" Id="DRN" Key="00051" Name="DRN" Short_Name="8023" Supported="true" Type="Set" Value="0" Visible="true">
              <Item Key="00051.0001" Name="CUNIT" ReadOnly="true" Short_Name="8018" Type="Int" Value="3" Visible="true"/>
              <Item Key="00051.0002" Name="LUNIT" ReadOnly="true" Short_Name="8019" Type="Int" Value="13" Visible="true"/>
              <Item Key="00051.0003" Name="EXT" ReadOnly="true" Short_Name="8020" Type="Text" Value=".DRN" Visible="true"/>
              <Item Key="00051.Translate" Name="Translate" ReadOnly="false" Short_Name="8021" Type="bool" Value="false" Visible="true"/>
              <Item Key="00051.Run" Name="Run" ReadOnly="false" Short_Name="8022" Type="bool" Value="false" Visible="true"/>
            </Item>
            <Item Composite="true" Description="8031" Id="DRT" Key="0042" Name="DRT" Short_Name="8030" Supported="false" Type="Set" Value="1" Visible="true">
              <Item Key="0042.0001" Name="CUNIT" ReadOnly="true" Short_Name="8025" Type="Int" Value="40" Visible="true"/>
              <Item Key="0042.0002" Name="LUNIT" ReadOnly="true" Short_Name="8026" Type="Int" Value="50" Visible="true"/>
              <Item Key="0042.0003" Name="EXT" ReadOnly="true" Short_Name="8027" Type="Text" Value=".DRT" Visible="true"/>
              <Item Key="0042.Translate" Name="Translate" ReadOnly="false" Short_Name="8028" Type="bool" Value="false" Visible="false"/>
              <Item Key="0042.Run" Name="Run" ReadOnly="false" Short_Name="8029" Type="bool" Value="false" Visible="true"/>
            </Item>
            <List_Item Value="0" Description="8016"/>
            <List_Item Value="1" Description="8017"/>
          </Item>
          <Item Composite="true" Description="8040" Id="RIV" Key="0006" Main="true" Name="RIV" Short_Name="8039" Supported="true" Type="Set" Visible="true">
            <Item Key="0006.0001" Name="CUNIT" ReadOnly="true" Short_Name="8034" Type="Int" Value="4" Visible="true"/>
            <Item Key="0006.0002" Name="LUNIT" ReadOnly="true" Short_Name="8035" Type="Int" Value="14" Visible="true"/>
            <Item Key="0006.0003" Name="EXT" ReadOnly="true" Short_Name="8036" Type="Text" Value=".RIV" Visible="true"/>
            <Item Key="0006.Translate" Name="Translate" ReadOnly="false" Short_Name="8037" Type="bool" Value="true" Visible="true"/>
            <Item Key="0006.Run" Name="Run" ReadOnly="false" Short_Name="8038" Type="bool" Value="true" Visible="true"/>
          </Item>
          <Item Composite="true" Description="8058" Id="EVP" Key="0007" Main="true" Name="EVP" Short_Name="8057" Supported="true" Type="List" Value="0" Visible="false">
            <Item Composite="true" Description="8049" Id="EVT" Key="00071" Name="EVT" Short_Name="8048" Supported="true" Type="Set" Value="0" Visible="true">
              <Item Key="00071.0001" Name="CUNIT" ReadOnly="true" Short_Name="8043" Type="Int" Value="5" Visible="true"/>
              <Item Key="00071.0002" Name="LUNIT" ReadOnly="true" Short_Name="8044" Type="Int" Value="15" Visible="true"/>
              <Item Key="00071.0003" Name="EXT" ReadOnly="true" Short_Name="8045" Type="Text" Value=".EVT" Visible="true"/>
              <Item Key="00071.Translate" Name="Translate" ReadOnly="false" Short_Name="8046" Type="bool" Value="false" Visible="true"/>
              <Item Key="00071.Run" Name="Run" ReadOnly="false" Short_Name="8047" Type="bool" Value="false" Visible="true"/>
            </Item>
            <Item Composite="true" Description="8056" Id="ETS" Key="0041" Name="ETS" Short_Name="8055" Supported="true" Type="Set" Value="1" Visible="true">
              <Item Key="0041.0001" Name="CUNIT" ReadOnly="true" Short_Name="8050" Type="Int" Value="39" Visible="true"/>
              <Item Key="0041.0002" Name="LUNIT" ReadOnly="true" Short_Name="8051" Type="Int" Value="49" Visible="true"/>
              <Item Key="0041.0003" Name="EXT" ReadOnly="true" Short_Name="8052" Type="Text" Value=".ETS" Visible="true"/>
              <Item Key="0041.Translate" Name="Translate" ReadOnly="false" Short_Name="8053" Type="bool" Value="true" Visible="false"/>
              <Item Key="0041.Run" Name="Run" ReadOnly="false" Short_Name="8054" Type="bool" Value="false" Visible="true"/>
            </Item>
            <List_Item Value="0" Description="8041"/>
            <List_Item Value="1" Description="8042"/>
          </Item>
          <Item Composite="true" Description="8065" Id="TLK" Key="0008" Main="true" Name="TLK" Short_Name="8064" Supported="false" Type="Set" Visible="false">
            <Item Key="0008.0001" Name="CUNIT" ReadOnly="true" Short_Name="8059" Type="Int" Value="6" Visible="true"/>
            <Item Key="0008.0002" Name="LUNIT" ReadOnly="true" Short_Name="8060" Type="Int" Value="16" Visible="true"/>
            <Item Key="0008.0003" Name="EXT" ReadOnly="true" Short_Name="8061" Type="Text" Value=".TLK" Visible="true"/>
            <Item Key="0008.Translate" Name="Translate" ReadOnly="false" Short_Name="8062" Type="bool" Value="false" Visible="true"/>
            <Item Key="0008.Run" Name="Run" ReadOnly="false" Short_Name="8063" Type="bool" Value="false" Visible="true"/>
          </Item>
          <Item Composite="true" Description="8072" Id="GHB" Key="0009" Main="true" Name="GHB" Short_Name="8071" Supported="true" Type="Set" Visible="false">
            <Item Key="0009.0001" Name="CUNIT" ReadOnly="true" Short_Name="8066" Type="Int" Value="7" Visible="true"/>
            <Item Key="0009.0002" Name="LUNIT" ReadOnly="true" Short_Name="8067" Type="Int" Value="17" Visible="true"/>
            <Item Key="0009.0003" Name="EXT" ReadOnly="true" Short_Name="8068" Type="Text" Value=".GHB" Visible="true"/>
            <Item Key="0009.Translate" Name="Translate" ReadOnly="false" Short_Name="8069" Type="bool" Value="false" Visible="true"/>
            <Item Key="0009.Run" Name="Run" ReadOnly="false" Short_Name="8070" Type="bool" Value="false" Visible="true"/>
          </Item>
          <Item Composite="true" Description="8079" Id="RCH" Key="0010" Main="true" Name="RCH" Short_Name="8078" Supported="true" Type="Set" Visible="true">
            <Item Key="0010.0001" Name="CUNIT" ReadOnly="true" Short_Name="8073" Type="Int" Value="8" Visible="true"/>
            <Item Key="0010.0002" Name="LUNIT" ReadOnly="true" Short_Name="8074" Type="Int" Value="18" Visible="true"/>
            <Item Key="0010.0003" Name="EXT" ReadOnly="true" Short_Name="8075" Type="Text" Value=".RCH" Visible="true"/>
            <Item Key="0010.Translate" Name="Translate" ReadOnly="false" Short_Name="8076" Type="bool" Value="true" Visible="true"/>
            <Item Key="0010.Run" Name="Run" ReadOnly="false" Short_Name="8077" Type="bool" Value="true" Visible="true"/>
          </Item>
          <Item Composite="true" Description="8086" Id="OC" Key="0014" Main="true" Name="OC" Short_Name="8085" Supported="true" Type="Set" Visible="true">
            <Item Key="0014.0001" Name="CUNIT" ReadOnly="true" Short_Name="8080" Type="Int" Value="12" Visible="true"/>
            <Item Key="0014.0002" Name="LUNIT" ReadOnly="true" Short_Name="8081" Type="Int" Value="22" Visible="true"/>
            <Item Key="0014.0003" Name="EXT" ReadOnly="true" Short_Name="8082" Type="Text" Value=".OC" Visible="true"/>
            <Item Key="0014.Translate" Name="Translate" ReadOnly="false" Short_Name="8083" Type="bool" Value="true" Visible="true"/>
            <Item Key="0014.Run" Name="Run" ReadOnly="true" Short_Name="8084" Type="bool" Value="true" Visible="true"/>
          </Item>
          <Item Composite="true" Description="8093" Id="CONC" Key="0017" Main="true" Name="CONC" Short_Name="8092" Supported="false" Type="Set" Visible="false">
            <Item Key="0017.0001" Name="CUNIT" ReadOnly="true" Short_Name="8087" Type="Int" Value="15" Visible="true"/>
            <Item Key="0017.0002" Name="LUNIT" ReadOnly="true" Short_Name="8088" Type="Int" Value="25" Visible="true"/>
            <Item Key="0017.0003" Name="EXT" ReadOnly="true" Short_Name="8089" Type="Text" Value=".CNC" Visible="true"/>
            <Item Key="0017.Translate" Name="Translate" ReadOnly="false" Short_Name="8090" Type="bool" Value="false" Visible="true"/>
            <Item Key="0017.Run" Name="Run" ReadOnly="false" Short_Name="8091" Type="bool" Value="false" Visible="true"/>
          </Item>
          <Item Composite="true" Description="8100" Id="FHB" Key="0018" Main="true" Name="FHB" Short_Name="8099" Supported="false" Type="Set" Visible="false">
            <Item Key="0018.0001" Name="CUNIT" ReadOnly="true" Short_Name="8094" Type="Int" Value="16" Visible="true"/>
            <Item Key="0018.0002" Name="LUNIT" ReadOnly="true" Short_Name="8095" Type="Int" Value="26" Visible="true"/>
            <Item Key="0018.0003" Name="EXT" ReadOnly="true" Short_Name="8096" Type="Text" Value=".FHB" Visible="true"/>
            <Item Key="0018.Translate" Name="Translate" ReadOnly="false" Short_Name="8097" Type="bool" Value="false" Visible="true"/>
            <Item Key="0018.Run" Name="Run" ReadOnly="false" Short_Name="8098" Type="bool" Value="false" Visible="true"/>
          </Item>
          <Item Composite="true" Description="8107" Id="RES" Key="0019" Main="true" Name="RES" Short_Name="8106" Supported="false" Type="Set" Visible="false">
            <Item Key="0019.0001" Name="CUNIT" ReadOnly="true" Short_Name="8101" Type="Int" Value="17" Visible="true"/>
            <Item Key="0019.0002" Name="LUNIT" ReadOnly="true" Short_Name="8102" Type="Int" Value="27" Visible="true"/>
            <Item Key="0019.0003" Name="EXT" ReadOnly="true" Short_Name="8103" Type="Text" Value=".RSV" Visible="true"/>
            <Item Key="0019.Translate" Name="Translate" ReadOnly="false" Short_Name="8104" Type="bool" Value="false" Visible="true"/>
            <Item Key="0019.Run" Name="Run" ReadOnly="false" Short_Name="8105" Type="bool" Value="false" Visible="true"/>
          </Item>
          <Item Composite="true" Description="8115" Id="STR" Key="0020" Main="true" Name="STR" Short_Name="8114" Supported="true" Type="Set" Visible="false">
            <Item Key="0020.0001" Name="CUNIT" ReadOnly="true" Short_Name="8108" Type="Int" Value="18" Visible="true"/>
            <Item Key="0020.0002" Name="LUNIT" ReadOnly="true" Short_Name="8109" Type="Int" Value="28" Visible="true"/>
            <Item Key="0020.0003" Name="EXT" ReadOnly="true" Short_Name="8110" Type="Text" Value=".STR" Visible="true"/>
            <Item Key="0020.0004" Name="ICALC" ReadOnly="false" Short_Name="8111" Type="bool" Value="false" Visible="true"/>
            <Item Key="0020.Translate" Name="Translate" ReadOnly="false" Short_Name="8112" Type="bool" Value="false" Visible="true"/>
            <Item Key="0020.Run" Name="Run" ReadOnly="false" Short_Name="8113" Type="bool" Value="false" Visible="true"/>
          </Item>
          <Item Composite="true" Description="8122" Id="IBS" Key="0021" Main="true" Name="IBS" Short_Name="8121" Supported="false" Type="Set" Visible="false">
            <Item Key="0021.0001" Name="CUNIT" ReadOnly="true" Short_Name="8116" Type="Int" Value="19" Visible="true"/>
            <Item Key="0021.0002" Name="LUNIT" ReadOnly="true" Short_Name="8117" Type="Int" Value="29" Visible="true"/>
            <Item Key="0021.0003" Name="EXT" ReadOnly="true" Short_Name="8118" Type="Text" Value=".IBS" Visible="true"/>
            <Item Key="0021.Translate" Name="Translate" ReadOnly="false" Short_Name="8119" Type="bool" Value="false" Visible="true"/>
            <Item Key="0021.Run" Name="Run" ReadOnly="false" Short_Name="8120" Type="bool" Value="false" Visible="true"/>
          </Item>