[General]
Input type=12098
Name of namefile=modpath.in
Output mode=2
Compute budget=0
Cell-by-cell check=0
Summarize final data=1
[Absolute time]
Time=0
TC factor=1
[Flow terms]
File type=1
Name=C:\CURSOIGME\EXAMPLE SWAT-MODFLOW\MODFLOW\Synthetic\Synthetic.cbf
[Sinks]
How=3
Discharge percent=0.05
[Start location]
Forward from=1
Forward name=forward.in
Backward from=1
Backward name=backward.in
