#
# This file is generated by Slb's Visual MODFLOW
     1.e-5        1.       100     1.e-6         2         1         1 SPECIFIED     9.e-1     1.e-5        0.     1.e-1         1        30      1.05     9.e-1
         2         1         3         7         0        0.         1     1.e-4     1.e-4       200
